48
55.16284135103268
C -8.6986 -0.6212 2.1228
C -7.6472 -0.6419 3.0361
C -6.3216 -0.5365 2.5998
C -6.0534 -0.4089 1.2213
C -7.1274 -0.3920 0.3326
C -8.4594 -0.4957 0.7510
N -6.6015 -0.2632 -0.9314
C -5.2285 -0.1940 -0.8904
C -4.2987 -0.0641 -1.9259
C -2.9406 -0.0223 -1.5795
C -2.5157 -0.1050 -0.2458
C -1.1009 -0.0609 0.1306
N -0.5883 -0.3293 1.3162
N 0.7757 -0.1737 1.2491
C 1.0946 0.2095 0.0281
C 2.4378 0.4828 -0.4859
C 2.6530 1.1668 -1.6906
C 3.9442 1.4175 -2.1764
C 5.0235 0.9611 -1.4143
N 6.3767 1.0624 -1.6390
C 7.0915 0.4701 -0.6248
C 8.4746 0.3397 -0.4505
C 8.9223 -0.3210 0.6974
C 8.0221 -0.8289 1.6311
C 6.6426 -0.6891 1.4405
C 6.1650 -0.0274 0.2904
C 4.8602 0.2833 -0.2089
C 3.5496 0.0473 0.2579
N -0.0656 0.2863 -0.6995
C -3.4819 -0.2409 0.7681
C -4.8556 -0.2841 0.4482
H -9.7219 -0.7047 2.4818
H -7.8547 -0.7410 4.0986
H -5.5071 -0.5543 3.3182
H -9.2816 -0.4810 0.0431
H -7.1524 -0.2272 -1.7760
H -4.6108 -0.0028 -2.9638
H -2.2241 0.0637 -2.3916
H 1.8190 1.5395 -2.2788
H 4.0942 1.9524 -3.1088
H 6.7926 1.5112 -2.4412
H 9.1796 0.7344 -1.1745
H 9.9906 -0.4397 0.8638
H 8.3913 -1.3388 2.5175
H 5.9470 -1.0874 2.1735
H 3.4047 -0.4796 1.1990
H -0.1409 0.5410 -1.6690
H -3.1743 -0.3121 1.8096
