48
54.59302645992318
C -8.0921 0.8999 1.2486
C -6.9046 1.1940 1.9138
C -5.6682 0.8716 1.3423
C -5.6302 0.2420 0.0798
C -6.8366 -0.0400 -0.5590
C -8.0817 0.2759 -0.0025
N -6.5276 -0.6450 -1.7537
C -5.1667 -0.7576 -1.9129
C -4.4249 -1.2899 -2.9708
C -3.0303 -1.2624 -2.8579
C -2.3868 -0.7320 -1.7317
C -0.9249 -0.7342 -1.6826
N -0.0973 -0.8733 -2.7004
N 1.1921 -0.8046 -2.2279
C 1.1489 -0.6627 -0.9171
C 2.2842 -0.5347 -0.0058
C 2.1855 -0.8671 1.3524
C 3.2756 -0.7337 2.2232
C 4.4757 -0.2538 1.6901
N 5.6889 -0.0248 2.2964
C 6.6092 0.4539 1.3948
C 7.9487 0.8171 1.5784
C 8.6525 1.2775 0.4613
C 8.0387 1.3708 -0.7854
C 6.6981 1.0041 -0.9497
C 5.9671 0.5343 0.1600
C 4.6219 0.0836 0.3467
C 3.5107 -0.0678 -0.5095
N -0.1697 -0.6078 -0.5449
C -3.1650 -0.2016 -0.6863
C -4.5756 -0.2127 -0.7764
H -9.0431 1.1602 1.7076
H -6.9367 1.6814 2.8852
H -4.7489 1.1083 1.8691
H -9.0093 0.0491 -0.5183
H -7.2095 -0.9588 -2.4280
H -4.9008 -1.7052 -3.8532
H -2.4343 -1.6684 -3.6762
H 1.2598 -1.2624 1.7619
H 3.1871 -1.0019 3.2710
H 5.8803 -0.1847 3.2743
H 8.4315 0.7420 2.5465
H 9.6956 1.5659 0.5680
H 8.6054 1.7263 -1.6433
H 6.2275 1.0786 -1.9255
H 3.6070 0.1849 -1.5635
H -0.5172 -0.4789 0.3898
H -2.7100 0.2447 0.1906
