48
54.13295725001802
C 6.9940 2.4182 1.5027
C 5.8371 2.0451 2.1838
C 4.8158 1.3499 1.5253
C 4.9666 1.0215 0.1618
C 6.1396 1.4047 -0.4883
C 7.1680 2.1058 0.1525
N 6.0454 0.9595 -1.7874
C 4.8628 0.2888 -1.9933
C 4.3795 -0.3515 -3.1357
C 3.1251 -0.9655 -3.0509
C 2.3630 -0.9291 -1.8781
C 1.0476 -1.5639 -1.8648
N 0.6427 -2.5746 -2.6092
N -0.6707 -2.8416 -2.3009
C -1.0750 -1.9692 -1.3966
C -2.4104 -1.8674 -0.8079
C -3.2744 -2.9682 -0.8856
C -4.5698 -2.9315 -0.3567
C -4.9844 -1.7426 0.2533
N -6.1855 -1.4174 0.8398
C -6.1684 -0.1298 1.3246
C -7.1647 0.5970 1.9860
C -6.8588 1.9032 2.3761
C -5.6102 2.4570 2.1096
C -4.6297 1.7166 1.4387
C -4.9105 0.3959 1.0381
C -4.1637 -0.6208 0.3590
C -2.8591 -0.6864 -0.1818
N -0.0077 -1.1666 -1.0839
C 2.8830 -0.2853 -0.7402
C 4.1547 0.3280 -0.7936
H 7.7770 2.9585 2.0307
H 5.7246 2.2948 3.2383
H 3.9203 1.0595 2.0662
H 8.0731 2.3954 -0.3735
H 6.7579 1.0924 -2.4892
H 4.9502 -0.3848 -4.0586
H 2.7350 -1.4804 -3.9302
H -2.9330 -3.8868 -1.3694
H -5.2203 -3.7965 -0.4281
H -6.9745 -2.0434 0.9066
H -8.1373 0.1693 2.1974
H -7.6083 2.4937 2.8972
H -5.3911 3.4747 2.4297
H -3.6588 2.1597 1.2392
H -2.2338 0.1978 -0.1208
H -0.0029 -0.4124 -0.4135
H 2.3396 -0.2715 0.1971
