48
54.425525864346035
C 8.7656 -0.3351 -1.1636
C 8.1944 -1.1686 -0.2051
C 6.8302 -1.0801 0.0949
C 6.0311 -0.1359 -0.5824
C 6.6330 0.6847 -1.5354
C 7.9955 0.6102 -1.8481
N 5.6502 1.5041 -2.0389
C 4.4359 1.2389 -1.4497
C 3.1837 1.8248 -1.6566
C 2.1069 1.3424 -0.8995
C 2.2661 0.3088 0.0342
C 1.1480 -0.2078 0.8252
N 1.2220 -0.9561 1.9088
N -0.0545 -1.2306 2.3378
C -0.9086 -0.6682 1.5042
C -2.3705 -0.7138 1.5809
C -2.9738 -1.2517 2.7265
C -4.3645 -1.3269 2.8699
C -5.1464 -0.8447 1.8177
N -6.5135 -0.7939 1.6808
C -6.8677 -0.2403 0.4731
C -8.1343 -0.0011 -0.0731
C -8.1922 0.5818 -1.3423
C -7.0294 0.9114 -2.0344
C -5.7712 0.6645 -1.4731
C -5.6850 0.0771 -0.1935
C -4.5980 -0.3046 0.6573
C -3.1903 -0.2401 0.5402
N -0.1804 -0.0129 0.5442
C 3.5438 -0.2493 0.2216
C 4.6447 0.2150 -0.5291
H 9.8277 -0.4194 -1.3827
H 8.8112 -1.8961 0.3167
H 6.3922 -1.7336 0.8438
H 8.4451 1.2586 -2.5929
H 5.8023 2.2063 -2.7473
H 3.0450 2.6286 -2.3728
H 1.1399 1.8140 -1.0521
H -2.3487 -1.6261 3.5380
H -4.8068 -1.7477 3.7671
H -7.1698 -1.1219 2.3736
H -9.0425 -0.2576 0.4623
H -9.1609 0.7796 -1.7957
H -7.0983 1.3630 -3.0211
H -4.8717 0.9233 -2.0227
H -2.7741 0.1697 -0.3726
H -0.5516 0.5057 -0.2331
H 3.6901 -1.0480 0.9462
