48
54.78109967830191
C 8.3011 1.0147 2.5228
C 7.7367 1.9213 1.6280
C 6.4835 1.6707 1.0564
C 5.7899 0.4875 1.3935
C 6.3795 -0.3982 2.2944
C 7.6312 -0.1651 2.8756
N 5.5096 -1.4530 2.4504
C 4.3808 -1.2811 1.6830
C 3.2516 -2.0961 1.5347
C 2.2368 -1.6537 0.6720
C 2.3433 -0.4402 -0.0233
C 1.2861 0.0447 -0.9105
N 1.4185 0.8788 -1.9212
N 0.1764 1.1201 -2.4563
C -0.7164 0.4543 -1.7504
C -2.1685 0.4574 -1.9426
C -2.6938 0.8961 -3.1665
C -4.0712 0.9468 -3.4079
C -4.9208 0.5504 -2.3716
N -6.2946 0.5233 -2.3152
C -6.7289 0.0718 -1.0918
C -8.0297 -0.1069 -0.6055
C -8.1725 -0.5837 0.7017
C -7.0579 -0.8728 1.4861
C -5.7650 -0.6858 0.9830
C -5.5924 -0.2029 -0.3302
C -4.4506 0.1079 -1.1376
C -3.0521 0.0582 -0.9218
N -0.0455 -0.2586 -0.7881
C 3.5020 0.3462 0.1375
C 4.5314 -0.0721 1.0060
H 9.2769 1.2262 2.9547
H 8.2744 2.8335 1.3659
H 6.0508 2.3801 0.3574
H 8.0749 -0.8687 3.5722
H 5.6802 -2.2472 3.0500
H 3.1601 -3.0417 2.0615
H 1.3672 -2.2961 0.5414
H -2.0160 1.2149 -3.9596
H -4.4536 1.2992 -4.3611
H -6.9035 0.8031 -3.0691
H -8.9013 0.1157 -1.2154
H -9.1692 -0.7298 1.1119
H -7.1914 -1.2374 2.5012
H -4.9033 -0.9017 1.6084
H -2.6913 -0.2580 0.0505
H -0.4571 -0.8594 -0.0913
H 3.6036 1.2872 -0.4002
