48
53.78230106157092
C 6.6683 0.9459 -3.2588
C 5.3872 1.4915 -3.2238
C 4.4649 1.0839 -2.2521
C 4.8416 0.1118 -1.3018
C 6.1317 -0.4137 -1.3634
C 7.0666 -0.0191 -2.3275
N 6.2462 -1.3228 -0.3386
C 5.0784 -1.4018 0.3830
C 4.7618 -2.1780 1.5006
C 3.4749 -2.0449 2.0350
C 2.5259 -1.1768 1.4775
C 1.1959 -1.0961 2.0811
N 0.8461 -1.4964 3.2880
N -0.4957 -1.2508 3.4567
C -0.9687 -0.7202 2.3450
C -2.3503 -0.3120 2.0845
C -3.2495 -0.2347 3.1575
C -4.5866 0.1396 2.9809
C -5.0063 0.4329 1.6811
N -6.2432 0.8094 1.2139
C -6.2216 0.9883 -0.1494
C -7.2470 1.3582 -1.0284
C -6.9287 1.4716 -2.3843
C -5.6365 1.2268 -2.8403
C -4.6239 0.8543 -1.9484
C -4.9193 0.7302 -0.5749
C -4.1538 0.3725 0.5817
C -2.8068 -0.0044 0.7889
N 0.0744 -0.6064 1.4621
C 2.8815 -0.4036 0.3570
C 4.1755 -0.5161 -0.2004
H 7.3719 1.2767 -4.0198
H 5.1001 2.2427 -3.9566
H 3.4699 1.5182 -2.2330
H 8.0663 -0.4399 -2.3569
H 7.0799 -1.8545 -0.1366
H 5.4795 -2.8587 1.9481
H 3.2101 -2.6415 2.9085
H -2.9058 -0.4721 4.1649
H -5.2633 0.1921 3.8281
H -7.0608 0.9286 1.7931
H -8.2553 1.5513 -0.6764
H -7.7036 1.7564 -3.0936
H -5.4108 1.3232 -3.8993
H -3.6207 0.6636 -2.3160
H -2.1558 -0.0687 -0.0752
H 0.0260 -0.2389 0.5271
H 2.1896 0.3025 -0.0889
